Version 4
SHEET 1 880 680
WIRE 160 -48 -32 -48
WIRE 368 -32 304 -32
WIRE 592 -32 560 -32
WIRE 160 -16 16 -16
WIRE 416 0 304 0
WIRE 160 16 112 16
WIRE -32 32 -32 -48
WIRE -32 32 -192 32
WIRE 416 128 416 0
WIRE 544 128 416 128
WIRE 592 128 592 -32
WIRE -32 144 -32 32
WIRE 176 144 -32 144
WIRE 400 160 288 160
WIRE 544 160 480 160
WIRE 16 176 16 -16
WIRE 176 176 16 176
WIRE 768 176 672 176
WIRE 544 192 352 192
WIRE 352 208 352 192
WIRE 544 224 416 224
WIRE 16 240 16 176
WIRE 16 240 -208 240
WIRE -32 288 -32 144
WIRE 192 288 -32 288
WIRE 352 304 352 288
WIRE 352 304 288 304
WIRE 16 320 16 240
WIRE 192 320 16 320
WIRE 592 352 592 224
WIRE -32 432 -32 288
WIRE 192 432 -32 432
WIRE 416 448 416 224
WIRE 416 448 288 448
WIRE 16 464 16 320
WIRE 192 464 16 464
FLAG -192 32 A
IOPIN -192 32 In
FLAG -208 240 B
IOPIN -208 240 In
FLAG 768 176 Out
IOPIN 768 176 Out
FLAG 592 352 S0
IOPIN 592 352 In
FLAG 560 -32 S1
IOPIN 560 -32 In
FLAG 112 16 Cin
IOPIN 112 16 In
FLAG 368 -32 Cout
IOPIN 368 -32 Out
SYMBOL MUX 608 176 R0
SYMATTR InstName X1
SYMBOL ADDER 224 -16 R0
SYMATTR InstName X2
SYMBOL NAND 224 160 R0
SYMATTR InstName X3
SYMBOL NOR 240 304 R0
SYMATTR InstName X4
SYMBOL XOR2 240 448 R0
SYMATTR InstName X5
SYMBOL INVERT 432 160 R0
SYMATTR InstName X6
SYMBOL INVERT 352 256 R270
SYMATTR InstName X7
TEXT -280 496 Left 2 !.tran 32n
TEXT -560 -24 Left 2 !.lib tsmc018.lib
