Version 4
SHEET 1 880 680
FLAG -720 -48 A
FLAG -720 96 B
FLAG -720 256 Cin
FLAG -704 416 S0
FLAG -416 96 S1
FLAG -720 32 0
FLAG -720 176 0
FLAG -720 336 0
FLAG -704 496 0
FLAG -416 176 0
FLAG 96 64 A
FLAG 96 96 B
FLAG 96 128 Cin
FLAG 96 160 S0
FLAG 96 192 S1
FLAG 240 112 Cout
FLAG 240 144 Out
SYMBOL 1_bit_ALU 160 128 R0
SYMATTR InstName X1
SYMBOL voltage -720 -64 R0
WINDOW 123 0 0 Left 0
WINDOW 39 0 0 Left 0
SYMATTR InstName V1
SYMATTR Value PULSE(0 5 0 1n 1n 2m 4m)
SYMBOL voltage -720 80 R0
WINDOW 123 0 0 Left 0
WINDOW 39 0 0 Left 0
SYMATTR InstName V2
SYMATTR Value PULSE(0 5 0 1n 1n 4m 8m)
SYMBOL voltage -720 240 R0
WINDOW 123 0 0 Left 0
WINDOW 39 0 0 Left 0
SYMATTR InstName V3
SYMATTR Value PULSE(0 5 0 1n 1n 8m 16m)
SYMBOL voltage -704 400 R0
WINDOW 123 0 0 Left 0
WINDOW 39 0 0 Left 0
SYMATTR InstName V4
SYMATTR Value PULSE(0 5 0 1n 1n 16m 32m)
SYMBOL voltage -416 80 R0
WINDOW 123 0 0 Left 0
WINDOW 39 0 0 Left 0
SYMATTR InstName V5
SYMATTR Value PULSE(0 5 0 1n 1n 32m 64m)
TEXT -248 552 Left 2 !.tran 0 64m 0
TEXT -552 -88 Left 2 !.lib tsmc018.lib
