Version 4
SHEET 1 1264 680
WIRE 160 -16 -352 -16
WIRE 560 16 560 -96
WIRE 720 16 720 -96
WIRE 880 16 880 -96
WIRE 160 64 160 -16
WIRE 96 96 -32 96
WIRE -352 112 -352 -16
WIRE 400 128 288 128
WIRE 560 128 560 96
WIRE 720 128 720 96
WIRE 880 128 880 96
WIRE 96 160 -32 160
WIRE 400 192 288 192
WIRE 96 224 -32 224
WIRE -352 288 -352 192
FLAG -352 288 0
FLAG 400 128 Cout
IOPIN 400 128 Out
FLAG 400 192 Sum
IOPIN 400 192 Out
FLAG -32 96 A
FLAG 560 -96 A
FLAG -32 160 B
FLAG 720 -96 B
FLAG -32 224 Cin
FLAG 880 -96 Cin
FLAG 560 128 0
FLAG 720 128 0
FLAG 880 128 0
SYMBOL Adder 192 160 R0
SYMATTR InstName X1
SYMBOL voltage -352 96 R0
WINDOW 123 0 0 Left 0
WINDOW 39 24 124 Left 2
SYMATTR InstName V1
SYMATTR Value 1.8
SYMBOL voltage 560 0 R0
WINDOW 3 86 -119 VRight 2
WINDOW 123 0 0 Left 0
WINDOW 39 0 0 Left 0
SYMATTR InstName V2
SYMATTR Value PULSE(0 1.8 0 1n 1n 5m 10m)
SYMBOL voltage 720 0 R0
WINDOW 3 86 -113 VRight 2
WINDOW 123 0 0 Left 0
WINDOW 39 0 0 Left 0
SYMATTR InstName V3
SYMATTR Value PULSE(0 1.8 0 1n 1n 2.5m 5m)
SYMBOL voltage 880 0 R0
WINDOW 3 91 -109 VRight 2
WINDOW 123 0 0 Left 0
WINDOW 39 0 0 Left 0
SYMATTR InstName V4
SYMATTR Value PULSE(0 1.8 0 1n 1n 1.25m 2.5m)
TEXT 144 -152 Left 2 !.tran 0 10m 0
