Version 4
SHEET 1 1856 1252
WIRE 1584 -144 1392 -144
WIRE 1776 -144 1584 -144
WIRE 1392 -112 1392 -144
WIRE 1584 -112 1584 -144
WIRE 1776 -112 1776 -144
WIRE 1392 16 1392 -16
WIRE 1424 16 1392 16
WIRE 1584 16 1584 -16
WIRE 1584 16 1424 16
WIRE 1680 16 1584 16
WIRE 1776 16 1776 -16
WIRE 1776 16 1680 16
WIRE 304 32 304 -48
WIRE 304 32 176 32
WIRE 432 32 304 32
WIRE 176 48 176 32
WIRE 432 48 432 32
WIRE 128 128 96 128
WIRE 528 128 480 128
WIRE 1680 128 1680 16
WIRE 176 160 176 144
WIRE 432 160 432 144
WIRE 432 160 176 160
WIRE 176 176 176 160
WIRE 432 176 432 160
WIRE 1424 224 1424 16
WIRE 128 256 96 256
WIRE 528 256 480 256
WIRE 176 304 176 272
WIRE 1680 320 1680 224
WIRE 128 384 96 384
WIRE 176 448 176 400
WIRE 320 448 176 448
WIRE 432 448 432 272
WIRE 432 448 320 448
WIRE 320 544 320 448
WIRE 320 544 176 544
WIRE 480 544 320 544
WIRE 1680 560 1680 416
WIRE 176 576 176 544
WIRE 480 576 480 544
WIRE 128 656 96 656
WIRE 576 656 528 656
WIRE 1680 704 1680 656
WIRE 1680 704 1184 704
WIRE 1792 704 1680 704
WIRE 176 736 176 672
WIRE 176 736 32 736
WIRE 288 736 176 736
WIRE 32 752 32 736
WIRE 288 752 288 736
WIRE 480 752 480 672
WIRE 1184 800 1184 704
WIRE -16 832 -80 832
WIRE 240 832 208 832
WIRE 576 832 528 832
WIRE 1792 864 1792 800
WIRE 32 896 32 848
WIRE 256 896 32 896
WIRE 288 896 288 848
WIRE 288 896 256 896
WIRE 480 896 480 848
WIRE 480 896 288 896
WIRE 1184 912 1184 896
WIRE 1184 912 944 912
WIRE 1392 912 1184 912
WIRE 944 944 944 912
WIRE 1184 944 1184 912
WIRE 1392 944 1392 912
WIRE 256 960 256 896
WIRE 1792 1024 1792 960
WIRE 944 1072 944 1040
WIRE 1184 1072 1184 1040
WIRE 1184 1072 944 1072
WIRE 1392 1072 1392 1040
WIRE 1392 1072 1184 1072
WIRE 0 0 0 0
FLAG 256 960 0
FLAG 96 128 A
FLAG 96 384 A
FLAG -80 832 A
FLAG 576 656 A
FLAG 96 256 B
FLAG 528 128 B
FLAG 576 832 B
FLAG 208 832 B
FLAG 528 256 Cin
FLAG 96 656 Cin
FLAG 304 -48 Vdd
SYMBOL pmos 128 48 R0
SYMATTR InstName M1
SYMBOL pmos 128 176 R0
SYMATTR InstName M2
SYMBOL pmos 128 304 R0
SYMATTR InstName M3
SYMBOL pmos 480 48 M0
SYMATTR InstName M4
SYMBOL pmos 480 176 M0
SYMATTR InstName M5
SYMBOL nmos 128 576 R0
SYMATTR InstName M6
SYMBOL nmos -16 752 R0
SYMATTR InstName M7
SYMBOL nmos 240 752 R0
SYMATTR InstName M8
SYMBOL nmos 528 576 M0
SYMATTR InstName M9
SYMBOL nmos 528 752 M0
SYMATTR InstName M10
SYMBOL pmos 1344 -112 R0
SYMATTR InstName M11
SYMBOL pmos 1536 -112 R0
SYMATTR InstName M12
SYMBOL pmos 1728 -112 R0
SYMATTR InstName M13
SYMBOL pmos 1360 224 R0
SYMATTR InstName M17
SYMBOL nmos 1840 704 M0
SYMATTR InstName M18
SYMBOL nmos 1840 864 M0
SYMATTR InstName M19
SYMBOL nmos 1840 1024 M0
SYMATTR InstName M20
SYMBOL nmos 1344 944 R0
SYMATTR InstName M22
SYMBOL nmos 1136 944 R0
SYMATTR InstName M23
SYMBOL nmos 896 944 R0
SYMATTR InstName M24
SYMBOL nmos 1136 800 R0
SYMATTR InstName M25
SYMBOL pmos 1728 560 M0
SYMATTR InstName M21
SYMBOL pmos 1728 128 M0
SYMATTR InstName M14
SYMBOL pmos 1728 320 M0
SYMATTR InstName M15
