Version 4
SHEET 1 2560 680
WIRE -400 -1136 -400 -1232
WIRE 192 -1104 192 -1232
WIRE -400 -944 -400 -1056
WIRE 192 -928 192 -1024
WIRE -1120 -368 -1120 -416
WIRE -1520 -352 -1520 -416
WIRE -720 -352 -720 -416
WIRE 160 -320 48 -320
WIRE 1120 -320 1120 -400
WIRE 1616 -320 1616 -400
WIRE 2176 -320 2176 -400
WIRE 160 -288 48 -288
WIRE 416 -272 304 -272
WIRE 160 -256 48 -256
WIRE 496 -240 304 -240
WIRE -112 -224 -240 -224
WIRE 160 -224 -112 -224
WIRE -1120 -192 -1120 -288
WIRE -144 -192 -432 -192
WIRE 160 -192 -144 -192
WIRE -720 -176 -720 -272
WIRE -1520 -160 -1520 -272
WIRE 416 -128 416 -272
WIRE 416 -128 -48 -128
WIRE 1120 -128 1120 -240
WIRE 1616 -128 1616 -240
WIRE 2176 -128 2176 -240
WIRE 160 -64 48 -64
WIRE 160 -32 48 -32
WIRE 416 -16 304 -16
WIRE -48 0 -48 -128
WIRE 160 0 -48 0
WIRE 496 16 304 16
WIRE -112 32 -112 -224
WIRE 160 32 -112 32
WIRE -144 64 -144 -192
WIRE 160 64 -144 64
WIRE 416 128 416 -16
WIRE 416 128 -48 128
WIRE 160 192 48 192
WIRE 160 224 48 224
WIRE 496 240 304 240
WIRE -48 256 -48 128
WIRE 160 256 -48 256
WIRE 496 272 304 272
WIRE -112 288 -112 32
WIRE 160 288 -112 288
WIRE -144 320 -144 64
WIRE 160 320 -144 320
FLAG -240 -224 S0
FLAG -432 -192 S1
FLAG 48 -320 A0
FLAG -1520 -416 A0
FLAG 48 -64 A1
FLAG -1120 -416 A1
FLAG 48 192 A2
FLAG -720 -416 A2
FLAG 48 -288 B0
FLAG 1120 -400 B0
FLAG 48 -32 B1
FLAG 1616 -400 B1
FLAG 48 224 B2
FLAG 2176 -400 B2
FLAG 48 -256 Cin
FLAG 496 -240 F0
FLAG 496 16 F1
FLAG 496 240 F2
FLAG 496 272 Cout
FLAG 2176 -128 0
FLAG 1616 -128 0
FLAG 1120 -128 0
FLAG -720 -176 0
FLAG -1120 -192 0
FLAG -1520 -160 0
FLAG -400 -1232 S0
FLAG 192 -1232 S1
FLAG -400 -944 0
FLAG 192 -928 0
SYMBOL 1_bit_ALU 224 -256 R0
SYMATTR InstName X1
SYMBOL 1_bit_ALU 224 0 R0
SYMATTR InstName X2
SYMBOL 1_bit_ALU 224 256 R0
SYMATTR InstName X3
SYMBOL voltage -1520 -368 R0
WINDOW 123 0 0 Left 0
WINDOW 39 0 0 Left 0
SYMATTR InstName V1
SYMATTR Value PULSE(0 5 0 1n 1n 2m 4m)
SYMBOL voltage -1120 -384 R0
WINDOW 123 0 0 Left 0
WINDOW 39 0 0 Left 0
SYMATTR InstName V2
SYMATTR Value PULSE(0 5 0 1n 1n 4m 8m)
SYMBOL voltage -720 -368 R0
WINDOW 123 0 0 Left 0
WINDOW 39 0 0 Left 0
SYMATTR InstName V3
SYMATTR Value PULSE(0 5 0 1n 1n 8m 16m)
SYMBOL voltage 1120 -336 R0
WINDOW 123 0 0 Left 0
WINDOW 39 0 0 Left 0
SYMATTR InstName V4
SYMATTR Value PULSE(0 5 0 1n 1n 16m 32m)
SYMBOL voltage 1616 -336 R0
WINDOW 123 0 0 Left 0
WINDOW 39 0 0 Left 0
SYMATTR InstName V5
SYMATTR Value PULSE(0 5m 0 1n 1n 32m 64m)
SYMBOL voltage 2176 -336 R0
WINDOW 123 0 0 Left 0
WINDOW 39 0 0 Left 0
SYMATTR InstName V6
SYMATTR Value PULSE(0 5 0 1n 1n 64m 128m)
SYMBOL voltage -400 -1152 R0
WINDOW 123 0 0 Left 0
WINDOW 39 0 0 Left 0
SYMATTR InstName V7
SYMATTR Value PULSE(0 5 0 1n 1n 128m 256m)
SYMBOL voltage 192 -1120 R0
WINDOW 123 0 0 Left 0
WINDOW 39 0 0 Left 0
SYMATTR InstName V8
SYMATTR Value PULSE(0 5 0 1n 1n 256m 512m)
TEXT -1554 350 Left 2 !.tran 0 512m 0
