Version 4
SHEET 1 924 820
WIRE 320 -224 288 -224
WIRE 432 -224 320 -224
WIRE -256 -208 -288 -208
WIRE -192 -208 -256 -208
WIRE 16 -208 -128 -208
WIRE 16 -112 16 -208
WIRE 16 -112 -32 -112
WIRE 496 -96 496 -224
WIRE 496 -96 464 -96
WIRE 16 -64 16 -112
WIRE 496 -48 496 -96
WIRE 512 -48 496 -48
WIRE 0 -16 -512 -16
WIRE 496 -16 96 -16
WIRE 496 0 496 -16
WIRE -256 16 -256 -208
WIRE -256 16 -352 16
WIRE 320 32 320 -224
WIRE 320 32 288 32
WIRE -352 64 -352 16
WIRE 288 80 288 32
WIRE 288 80 240 80
WIRE 592 80 592 0
WIRE 608 80 592 80
WIRE 288 96 288 80
WIRE -368 112 -400 112
WIRE -176 112 -272 112
WIRE -32 112 -32 -112
WIRE 16 112 -32 112
WIRE 272 144 208 144
WIRE 608 144 608 80
WIRE 608 144 368 144
WIRE 0 160 -448 160
WIRE 208 160 208 144
WIRE 208 160 96 160
WIRE 464 192 464 -96
WIRE 528 192 464 192
WIRE -256 240 -256 16
WIRE -256 240 -352 240
WIRE -224 240 -256 240
WIRE -176 240 -176 112
WIRE 512 240 -176 240
WIRE 608 240 608 144
WIRE 192 288 -272 288
WIRE 240 288 240 80
WIRE 288 288 240 288
WIRE -32 320 -32 112
WIRE 80 320 -32 320
WIRE 192 336 192 288
WIRE 272 336 192 336
WIRE 608 336 608 240
WIRE 608 336 368 336
WIRE -656 368 -656 320
WIRE -368 368 -368 288
WIRE -368 368 -656 368
WIRE 0 368 -368 368
WIRE 608 368 608 336
WIRE 816 368 608 368
WIRE 464 384 464 192
WIRE 592 384 464 384
WIRE -400 432 -400 112
WIRE -400 432 -656 432
WIRE -128 432 -400 432
WIRE 96 432 96 368
WIRE 512 432 96 432
WIRE 608 432 608 368
WIRE -32 480 -32 320
WIRE 80 480 -32 480
WIRE 240 480 240 288
WIRE 352 480 240 480
WIRE -224 512 -224 240
WIRE -224 512 -288 512
WIRE -128 528 -128 432
WIRE 0 528 -128 528
WIRE 272 528 96 528
WIRE 608 528 608 432
WIRE 608 528 368 528
WIRE -448 560 -448 160
WIRE -448 560 -656 560
WIRE -368 560 -448 560
WIRE 608 560 608 528
WIRE 656 560 608 560
WIRE 464 608 464 384
WIRE 592 608 464 608
WIRE -272 656 -272 560
WIRE 512 656 -272 656
WIRE 608 656 608 560
WIRE -224 688 -224 512
WIRE -224 688 -288 688
WIRE 240 688 240 480
WIRE 352 688 240 688
WIRE -512 736 -512 -16
WIRE -512 736 -656 736
WIRE -368 736 -512 736
WIRE 272 736 -272 736
WIRE 656 736 656 560
WIRE 656 736 368 736
FLAG -656 736 SUM
IOPIN -656 736 In
FLAG -656 560 AND
IOPIN -656 560 In
FLAG -656 432 OR
IOPIN -656 432 In
FLAG -656 320 XOR
IOPIN -656 320 In
FLAG 816 368 OUT
IOPIN 816 368 Out
FLAG -288 -208 S1
IOPIN -288 -208 In
FLAG 288 -224 S2
IOPIN 288 -224 In
SYMBOL pmos -272 64 R90
SYMATTR InstName M1
SYMBOL pmos -272 240 R90
SYMATTR InstName M2
SYMBOL pmos 96 -64 R90
SYMATTR InstName M3
SYMBOL pmos 96 112 R90
SYMATTR InstName M4
SYMBOL pmos 368 96 R90
SYMATTR InstName M5
SYMBOL pmos 368 288 R90
SYMATTR InstName M6
SYMBOL pmos 592 -48 R90
WINDOW 0 63 31 Left 2
SYMATTR InstName M7
SYMBOL pmos 608 192 R90
SYMATTR InstName M8
SYMBOL nmos 512 384 M90
SYMATTR InstName M9
SYMBOL nmos 272 480 M90
SYMATTR InstName M10
SYMBOL nmos 0 320 M90
SYMATTR InstName M11
SYMBOL nmos -368 512 M90
SYMATTR InstName M12
SYMBOL nmos 512 608 M90
SYMATTR InstName M13
SYMBOL nmos 272 688 M90
SYMATTR InstName M14
SYMBOL nmos 0 480 M90
SYMATTR InstName M15
SYMBOL nmos -368 688 M90
SYMATTR InstName M16
SYMBOL Digital\\inv -192 -272 R0
SYMATTR InstName A1
SYMBOL Digital\\inv 432 -288 R0
SYMATTR InstName A2
