Version 4
SHEET 1 1692 680
WIRE -912 -128 -912 -176
WIRE -688 -128 -688 -176
WIRE -496 -128 -496 -176
WIRE 768 -112 768 -176
WIRE 1024 -112 1024 -176
WIRE 1280 -112 1280 -176
WIRE -912 32 -912 -48
WIRE -688 32 -688 -48
WIRE -496 32 -496 -48
WIRE 1024 32 1024 -32
WIRE 768 48 768 -32
WIRE 1280 48 1280 -32
WIRE 32 112 32 -96
WIRE 160 112 32 112
WIRE -16 144 -16 -128
WIRE 160 144 -16 144
WIRE -64 176 -64 -160
WIRE 160 176 -64 176
WIRE 576 192 288 192
WIRE 160 208 -64 208
WIRE 160 240 -16 240
WIRE 160 272 32 272
WIRE 32 384 32 272
WIRE -16 448 -16 240
WIRE -64 512 -64 208
FLAG 32 -96 and
FLAG -912 -176 and
FLAG -16 -128 or
FLAG -688 -176 or
FLAG -64 -160 s1
FLAG -496 -176 s1
FLAG -64 512 s2
FLAG 768 -176 s2
FLAG -16 448 sum
FLAG 1024 -176 sum
FLAG 32 384 xor
FLAG 1280 -176 xor
FLAG 576 192 out
FLAG 768 48 0
FLAG 1024 32 0
FLAG 1280 48 0
FLAG -496 32 0
FLAG -688 32 0
FLAG -912 32 0
SYMBOL voltage -912 -144 R0
WINDOW 3 105 -97 VRight 2
WINDOW 123 0 0 Left 0
WINDOW 39 0 0 Left 0
SYMATTR InstName V1
SYMATTR Value PULSE(0 5 0 1n 1n 5m 10m)
SYMBOL voltage -688 -144 R0
WINDOW 3 114 -97 VRight 2
WINDOW 123 0 0 Left 0
WINDOW 39 0 0 Left 0
SYMATTR InstName V2
SYMATTR Value PULSE(0 5 0 1n 1n 10m 20m)
SYMBOL voltage -496 -144 R0
WINDOW 3 133 -98 VRight 2
WINDOW 123 0 0 Left 0
WINDOW 39 0 0 Left 0
SYMATTR InstName V3
SYMATTR Value PULSE(0 5 0 1n 1n 20m 40m)
SYMBOL voltage 768 -128 R0
WINDOW 3 120 -95 VRight 2
WINDOW 123 0 0 Left 0
WINDOW 39 0 0 Left 0
SYMATTR InstName V4
SYMATTR Value PULSE(0 5 0 1n 1n 40m 80m)
SYMBOL voltage 1024 -128 R0
WINDOW 3 129 -101 VRight 2
WINDOW 123 0 0 Left 0
WINDOW 39 0 0 Left 0
SYMATTR InstName V5
SYMATTR Value PULSE(0 5 0 1n 1n 80m 160m)
SYMBOL voltage 1280 -128 R0
WINDOW 3 155 -96 VRight 2
WINDOW 123 0 0 Left 0
WINDOW 39 0 0 Left 0
SYMATTR InstName V6
SYMATTR Value PULSE(0 5 0 1n 1n 160m 320m)
SYMBOL 4_1_mux 224 192 R0
SYMATTR InstName X2
TEXT -946 588 Left 2 !.tran 0 320m 0
