Version 4
SHEET 1 1060 680
WIRE 0 128 0 48
WIRE 112 128 0 128
WIRE 352 144 256 144
WIRE 112 160 0 160
WIRE 352 176 256 176
WIRE 112 192 0 192
WIRE 0 256 0 192
FLAG 0 48 A
FLAG 0 160 B
FLAG 0 256 C
FLAG 352 144 Cout
FLAG 352 176 Sum
FLAG 720 64 A
FLAG 720 288 B
FLAG 720 512 C
FLAG 720 144 0
FLAG 720 368 0
FLAG 720 592 0
SYMBOL Adder 176 160 R0
SYMATTR InstName X1
SYMBOL voltage 720 48 R0
WINDOW 123 0 0 Left 0
WINDOW 39 0 0 Left 0
SYMATTR InstName V1
SYMATTR Value PULSE(5 0 0 1n 1n 1m 2m)
SYMBOL voltage 720 272 R0
WINDOW 123 0 0 Left 0
WINDOW 39 0 0 Left 0
SYMATTR InstName V2
SYMATTR Value PULSE(5 0 0 1n 1n 2m 4m)
SYMBOL voltage 720 496 R0
WINDOW 123 0 0 Left 0
WINDOW 39 0 0 Left 0
SYMATTR InstName V3
SYMATTR Value PULSE(5 0 0 1n 1n 4m 8m)
