Version 4
SHEET 1 3824 1228
WIRE 2256 -64 2256 -128
WIRE 2656 -64 2656 -128
WIRE 3024 -64 3024 -128
WIRE 2256 80 2256 16
WIRE 2656 80 2656 16
WIRE 3024 80 3024 16
WIRE 3408 144 3216 144
WIRE 3360 192 3216 192
WIRE 3408 192 3408 144
WIRE 3360 224 3216 224
WIRE 3616 240 3488 240
WIRE 3360 256 3216 256
WIRE 3360 288 3216 288
WIRE 3408 336 3408 288
WIRE 3408 336 3216 336
WIRE 2240 512 2240 448
WIRE 2640 512 2640 432
WIRE 3056 512 3056 432
WIRE 2240 656 2240 592
WIRE 2640 704 2640 592
WIRE 3056 704 3056 592
FLAG 3056 432 S1
FLAG 2640 432 S0
FLAG 2256 -128 X0
FLAG 2656 -128 X1
FLAG 3024 -128 X2
FLAG 2240 448 X3
FLAG 2256 80 0
FLAG 2656 80 0
FLAG 3024 80 0
FLAG 2240 656 0
FLAG 2640 704 0
FLAG 3056 704 0
FLAG 3216 336 S0
FLAG 3216 144 S1
FLAG 3216 192 X0
FLAG 3216 224 X1
FLAG 3216 256 X2
FLAG 3216 288 X3
FLAG 3616 240 OUT
SYMBOL voltage 2256 -80 R0
WINDOW 123 0 0 Left 0
WINDOW 39 0 0 Left 0
SYMATTR InstName V1
SYMATTR Value PULSE(0 5 0 1p 1p 1m 2m)
SYMBOL voltage 2656 -80 R0
WINDOW 123 0 0 Left 0
WINDOW 39 0 0 Left 0
SYMATTR InstName V2
SYMATTR Value PULSE(0 5 0 1p 1p 2m 4m)
SYMBOL voltage 3024 -80 R0
WINDOW 123 0 0 Left 0
WINDOW 39 0 0 Left 0
SYMATTR InstName V3
SYMATTR Value PULSE(0 5 0 1p 1p 4m 8m)
SYMBOL voltage 2240 496 R0
WINDOW 123 0 0 Left 0
WINDOW 39 0 0 Left 0
SYMATTR InstName V4
SYMATTR Value PULSE(0 5 0 1p 1p 8m 16m)
SYMBOL voltage 2640 496 R0
WINDOW 123 0 0 Left 0
WINDOW 39 0 0 Left 0
SYMATTR InstName V5
SYMATTR Value PULSE(0 5 0 1p 1p 16m 32m)
SYMBOL voltage 3056 496 R0
WINDOW 123 0 0 Left 0
WINDOW 39 0 0 Left 0
SYMATTR InstName V6
SYMATTR Value PULSE(0 5 0 1p 1p 32m 64m)
SYMBOL MUX 3424 240 R0
SYMATTR InstName X9
TEXT 2728 280 Left 2 !.tran 0 64m 0
